*SPEF "ieee 1481-1999"
*DESIGN "customcells"
*DATE "11:11:11 Fri 11 11, 1111"
*VENDOR "OpenRCX"
*PROGRAM "Parallel Extraction"
*VERSION "1.0"
*DESIGN_FLOW "NAME_SCOPE LOCAL" "PIN_CAP NONE"
*DIVIDER /
*DELIMITER :
*BUS_DELIMITER []
*T_UNIT 1 NS
*C_UNIT 1 PF
*R_UNIT 1 OHM
*L_UNIT 1 HENRY

*NAME_MAP
*3 in
*4 out
*7 some_customcells\._intsig_a_\[100\]
*8 some_customcells\._intsig_a_\[101\]
*9 some_customcells\._intsig_a_\[102\]
*10 some_customcells\._intsig_a_\[103\]
*11 some_customcells\._intsig_a_\[104\]
*12 some_customcells\._intsig_a_\[105\]
*13 some_customcells\._intsig_a_\[106\]
*14 some_customcells\._intsig_a_\[107\]
*15 some_customcells\._intsig_a_\[108\]
*16 some_customcells\._intsig_a_\[109\]
*17 some_customcells\._intsig_a_\[10\]
*18 some_customcells\._intsig_a_\[110\]
*19 some_customcells\._intsig_a_\[111\]
*20 some_customcells\._intsig_a_\[112\]
*21 some_customcells\._intsig_a_\[113\]
*22 some_customcells\._intsig_a_\[114\]
*23 some_customcells\._intsig_a_\[115\]
*24 some_customcells\._intsig_a_\[116\]
*25 some_customcells\._intsig_a_\[117\]
*26 some_customcells\._intsig_a_\[118\]
*27 some_customcells\._intsig_a_\[119\]
*28 some_customcells\._intsig_a_\[11\]
*29 some_customcells\._intsig_a_\[120\]
*30 some_customcells\._intsig_a_\[121\]
*31 some_customcells\._intsig_a_\[122\]
*32 some_customcells\._intsig_a_\[123\]
*33 some_customcells\._intsig_a_\[12\]
*34 some_customcells\._intsig_a_\[13\]
*35 some_customcells\._intsig_a_\[14\]
*36 some_customcells\._intsig_a_\[15\]
*37 some_customcells\._intsig_a_\[16\]
*38 some_customcells\._intsig_a_\[17\]
*39 some_customcells\._intsig_a_\[18\]
*40 some_customcells\._intsig_a_\[19\]
*41 some_customcells\._intsig_a_\[20\]
*42 some_customcells\._intsig_a_\[21\]
*43 some_customcells\._intsig_a_\[22\]
*44 some_customcells\._intsig_a_\[23\]
*45 some_customcells\._intsig_a_\[24\]
*46 some_customcells\._intsig_a_\[25\]
*47 some_customcells\._intsig_a_\[26\]
*48 some_customcells\._intsig_a_\[27\]
*49 some_customcells\._intsig_a_\[28\]
*50 some_customcells\._intsig_a_\[29\]
*51 some_customcells\._intsig_a_\[2\]
*52 some_customcells\._intsig_a_\[30\]
*53 some_customcells\._intsig_a_\[31\]
*54 some_customcells\._intsig_a_\[32\]
*55 some_customcells\._intsig_a_\[33\]
*56 some_customcells\._intsig_a_\[34\]
*57 some_customcells\._intsig_a_\[35\]
*58 some_customcells\._intsig_a_\[36\]
*59 some_customcells\._intsig_a_\[37\]
*60 some_customcells\._intsig_a_\[38\]
*61 some_customcells\._intsig_a_\[39\]
*62 some_customcells\._intsig_a_\[3\]
*63 some_customcells\._intsig_a_\[40\]
*64 some_customcells\._intsig_a_\[41\]
*65 some_customcells\._intsig_a_\[42\]
*66 some_customcells\._intsig_a_\[43\]
*67 some_customcells\._intsig_a_\[44\]
*68 some_customcells\._intsig_a_\[45\]
*69 some_customcells\._intsig_a_\[46\]
*70 some_customcells\._intsig_a_\[47\]
*71 some_customcells\._intsig_a_\[48\]
*72 some_customcells\._intsig_a_\[49\]
*73 some_customcells\._intsig_a_\[4\]
*74 some_customcells\._intsig_a_\[50\]
*75 some_customcells\._intsig_a_\[51\]
*76 some_customcells\._intsig_a_\[52\]
*77 some_customcells\._intsig_a_\[53\]
*78 some_customcells\._intsig_a_\[54\]
*79 some_customcells\._intsig_a_\[55\]
*80 some_customcells\._intsig_a_\[56\]
*81 some_customcells\._intsig_a_\[57\]
*82 some_customcells\._intsig_a_\[58\]
*83 some_customcells\._intsig_a_\[59\]
*84 some_customcells\._intsig_a_\[5\]
*85 some_customcells\._intsig_a_\[60\]
*86 some_customcells\._intsig_a_\[61\]
*87 some_customcells\._intsig_a_\[62\]
*88 some_customcells\._intsig_a_\[63\]
*89 some_customcells\._intsig_a_\[64\]
*90 some_customcells\._intsig_a_\[65\]
*91 some_customcells\._intsig_a_\[66\]
*92 some_customcells\._intsig_a_\[67\]
*93 some_customcells\._intsig_a_\[68\]
*94 some_customcells\._intsig_a_\[69\]
*95 some_customcells\._intsig_a_\[6\]
*96 some_customcells\._intsig_a_\[70\]
*97 some_customcells\._intsig_a_\[71\]
*98 some_customcells\._intsig_a_\[72\]
*99 some_customcells\._intsig_a_\[73\]
*100 some_customcells\._intsig_a_\[74\]
*101 some_customcells\._intsig_a_\[75\]
*102 some_customcells\._intsig_a_\[76\]
*103 some_customcells\._intsig_a_\[77\]
*104 some_customcells\._intsig_a_\[78\]
*105 some_customcells\._intsig_a_\[79\]
*106 some_customcells\._intsig_a_\[7\]
*107 some_customcells\._intsig_a_\[80\]
*108 some_customcells\._intsig_a_\[81\]
*109 some_customcells\._intsig_a_\[82\]
*110 some_customcells\._intsig_a_\[83\]
*111 some_customcells\._intsig_a_\[84\]
*112 some_customcells\._intsig_a_\[85\]
*113 some_customcells\._intsig_a_\[86\]
*114 some_customcells\._intsig_a_\[87\]
*115 some_customcells\._intsig_a_\[88\]
*116 some_customcells\._intsig_a_\[89\]
*117 some_customcells\._intsig_a_\[8\]
*118 some_customcells\._intsig_a_\[90\]
*119 some_customcells\._intsig_a_\[91\]
*120 some_customcells\._intsig_a_\[92\]
*121 some_customcells\._intsig_a_\[93\]
*122 some_customcells\._intsig_a_\[94\]
*123 some_customcells\._intsig_a_\[95\]
*124 some_customcells\._intsig_a_\[96\]
*125 some_customcells\._intsig_a_\[97\]
*126 some_customcells\._intsig_a_\[98\]
*127 some_customcells\._intsig_a_\[99\]
*128 some_customcells\._intsig_a_\[9\]
*129 some_customcells\.out
*130 FILLER_0_109
*131 FILLER_0_113
*132 FILLER_0_125
*133 FILLER_0_137
*134 FILLER_0_141
*135 FILLER_0_15
*136 FILLER_0_153
*137 FILLER_0_165
*138 FILLER_0_169
*139 FILLER_0_181
*140 FILLER_0_193
*141 FILLER_0_197
*142 FILLER_0_209
*143 FILLER_0_221
*144 FILLER_0_225
*145 FILLER_0_237
*146 FILLER_0_249
*147 FILLER_0_253
*148 FILLER_0_265
*149 FILLER_0_27
*150 FILLER_0_277
*151 FILLER_0_281
*152 FILLER_0_29
*153 FILLER_0_293
*154 FILLER_0_3
*155 FILLER_0_41
*156 FILLER_0_53
*157 FILLER_0_57
*158 FILLER_0_69
*159 FILLER_0_81
*160 FILLER_0_85
*161 FILLER_0_97
*162 FILLER_10_109
*163 FILLER_10_121
*164 FILLER_10_133
*165 FILLER_10_139
*166 FILLER_10_141
*167 FILLER_10_153
*168 FILLER_10_165
*169 FILLER_10_177
*170 FILLER_10_189
*171 FILLER_10_195
*172 FILLER_10_197
*173 FILLER_10_205
*174 FILLER_10_226
*175 FILLER_10_25
*176 FILLER_10_250
*177 FILLER_10_253
*178 FILLER_10_257
*179 FILLER_10_278
*180 FILLER_10_29
*181 FILLER_10_290
*182 FILLER_10_298
*183 FILLER_10_3
*184 FILLER_10_51
*185 FILLER_10_75
*186 FILLER_10_83
*187 FILLER_10_85
*188 FILLER_10_97
*189 FILLER_11_108
*190 FILLER_11_113
*191 FILLER_11_135
*192 FILLER_11_161
*193 FILLER_11_167
*194 FILLER_11_169
*195 FILLER_11_181
*196 FILLER_11_205
*197 FILLER_11_217
*198 FILLER_11_223
*199 FILLER_11_225
*200 FILLER_11_247
*201 FILLER_11_271
*202 FILLER_11_279
*203 FILLER_11_28
*204 FILLER_11_281
*205 FILLER_11_293
*206 FILLER_11_3
*207 FILLER_11_52
*208 FILLER_11_57
*209 FILLER_11_7
*210 FILLER_11_80
*211 FILLER_12_114
*212 FILLER_12_138
*213 FILLER_12_141
*214 FILLER_12_153
*215 FILLER_12_177
*216 FILLER_12_189
*217 FILLER_12_195
*218 FILLER_12_197
*219 FILLER_12_219
*220 FILLER_12_243
*221 FILLER_12_251
*222 FILLER_12_253
*223 FILLER_12_26
*224 FILLER_12_275
*225 FILLER_12_287
*226 FILLER_12_29
*227 FILLER_12_3
*228 FILLER_12_37
*229 FILLER_12_58
*230 FILLER_12_82
*231 FILLER_12_85
*232 FILLER_12_93
*233 FILLER_13_110
*234 FILLER_13_113
*235 FILLER_13_121
*236 FILLER_13_142
*237 FILLER_13_166
*238 FILLER_13_169
*239 FILLER_13_191
*240 FILLER_13_215
*241 FILLER_13_223
*242 FILLER_13_225
*243 FILLER_13_247
*244 FILLER_13_271
*245 FILLER_13_279
*246 FILLER_13_281
*247 FILLER_13_293
*248 FILLER_13_3
*249 FILLER_13_30
*250 FILLER_13_54
*251 FILLER_13_57
*252 FILLER_13_65
*253 FILLER_13_86
*254 FILLER_13_9
*255 FILLER_14_114
*256 FILLER_14_138
*257 FILLER_14_141
*258 FILLER_14_153
*259 FILLER_14_181
*260 FILLER_14_193
*261 FILLER_14_197
*262 FILLER_14_219
*263 FILLER_14_243
*264 FILLER_14_251
*265 FILLER_14_253
*266 FILLER_14_26
*267 FILLER_14_275
*268 FILLER_14_287
*269 FILLER_14_29
*270 FILLER_14_293
*271 FILLER_14_297
*272 FILLER_14_3
*273 FILLER_14_37
*274 FILLER_14_58
*275 FILLER_14_82
*276 FILLER_14_85
*277 FILLER_14_93
*278 FILLER_15_110
*279 FILLER_15_113
*280 FILLER_15_141
*281 FILLER_15_165
*282 FILLER_15_169
*283 FILLER_15_191
*284 FILLER_15_215
*285 FILLER_15_223
*286 FILLER_15_225
*287 FILLER_15_247
*288 FILLER_15_271
*289 FILLER_15_279
*290 FILLER_15_281
*291 FILLER_15_293
*292 FILLER_15_3
*293 FILLER_15_30
*294 FILLER_15_54
*295 FILLER_15_57
*296 FILLER_15_65
*297 FILLER_15_86
*298 FILLER_15_9
*299 FILLER_16_112
*300 FILLER_16_116
*301 FILLER_16_137
*302 FILLER_16_141
*303 FILLER_16_173
*304 FILLER_16_185
*305 FILLER_16_193
*306 FILLER_16_197
*307 FILLER_16_219
*308 FILLER_16_243
*309 FILLER_16_251
*310 FILLER_16_253
*311 FILLER_16_26
*312 FILLER_16_275
*313 FILLER_16_287
*314 FILLER_16_29
*315 FILLER_16_3
*316 FILLER_16_37
*317 FILLER_16_58
*318 FILLER_16_82
*319 FILLER_16_85
*320 FILLER_16_91
*321 FILLER_17_104
*322 FILLER_17_113
*323 FILLER_17_145
*324 FILLER_17_15
*325 FILLER_17_157
*326 FILLER_17_165
*327 FILLER_17_169
*328 FILLER_17_181
*329 FILLER_17_209
*330 FILLER_17_221
*331 FILLER_17_225
*332 FILLER_17_229
*333 FILLER_17_250
*334 FILLER_17_27
*335 FILLER_17_274
*336 FILLER_17_281
*337 FILLER_17_293
*338 FILLER_17_3
*339 FILLER_17_48
*340 FILLER_17_57
*341 FILLER_17_79
*342 FILLER_17_83
*343 FILLER_18_109
*344 FILLER_18_121
*345 FILLER_18_133
*346 FILLER_18_139
*347 FILLER_18_141
*348 FILLER_18_153
*349 FILLER_18_165
*350 FILLER_18_177
*351 FILLER_18_189
*352 FILLER_18_195
*353 FILLER_18_197
*354 FILLER_18_205
*355 FILLER_18_226
*356 FILLER_18_25
*357 FILLER_18_250
*358 FILLER_18_253
*359 FILLER_18_261
*360 FILLER_18_283
*361 FILLER_18_29
*362 FILLER_18_295
*363 FILLER_18_3
*364 FILLER_18_51
*365 FILLER_18_75
*366 FILLER_18_83
*367 FILLER_18_85
*368 FILLER_18_97
*369 FILLER_19_105
*370 FILLER_19_111
*371 FILLER_19_113
*372 FILLER_19_125
*373 FILLER_19_137
*374 FILLER_19_149
*375 FILLER_19_161
*376 FILLER_19_167
*377 FILLER_19_169
*378 FILLER_19_181
*379 FILLER_19_193
*380 FILLER_19_201
*381 FILLER_19_222
*382 FILLER_19_225
*383 FILLER_19_233
*384 FILLER_19_25
*385 FILLER_19_254
*386 FILLER_19_278
*387 FILLER_19_281
*388 FILLER_19_293
*389 FILLER_19_3
*390 FILLER_19_49
*391 FILLER_19_55
*392 FILLER_19_57
*393 FILLER_19_69
*394 FILLER_19_81
*395 FILLER_19_93
*396 FILLER_1_105
*397 FILLER_1_111
*398 FILLER_1_113
*399 FILLER_1_125
*400 FILLER_1_137
*401 FILLER_1_149
*402 FILLER_1_15
*403 FILLER_1_161
*404 FILLER_1_167
*405 FILLER_1_169
*406 FILLER_1_181
*407 FILLER_1_193
*408 FILLER_1_205
*409 FILLER_1_217
*410 FILLER_1_223
*411 FILLER_1_225
*412 FILLER_1_237
*413 FILLER_1_249
*414 FILLER_1_261
*415 FILLER_1_27
*416 FILLER_1_273
*417 FILLER_1_279
*418 FILLER_1_281
*419 FILLER_1_293
*420 FILLER_1_3
*421 FILLER_1_39
*422 FILLER_1_51
*423 FILLER_1_55
*424 FILLER_1_57
*425 FILLER_1_69
*426 FILLER_1_81
*427 FILLER_1_93
*428 FILLER_20_109
*429 FILLER_20_121
*430 FILLER_20_133
*431 FILLER_20_139
*432 FILLER_20_141
*433 FILLER_20_153
*434 FILLER_20_165
*435 FILLER_20_177
*436 FILLER_20_189
*437 FILLER_20_195
*438 FILLER_20_197
*439 FILLER_20_209
*440 FILLER_20_221
*441 FILLER_20_229
*442 FILLER_20_25
*443 FILLER_20_250
*444 FILLER_20_253
*445 FILLER_20_265
*446 FILLER_20_29
*447 FILLER_20_291
*448 FILLER_20_3
*449 FILLER_20_51
*450 FILLER_20_63
*451 FILLER_20_75
*452 FILLER_20_83
*453 FILLER_20_85
*454 FILLER_20_97
*455 FILLER_21_105
*456 FILLER_21_111
*457 FILLER_21_113
*458 FILLER_21_125
*459 FILLER_21_137
*460 FILLER_21_149
*461 FILLER_21_161
*462 FILLER_21_167
*463 FILLER_21_169
*464 FILLER_21_181
*465 FILLER_21_193
*466 FILLER_21_205
*467 FILLER_21_217
*468 FILLER_21_223
*469 FILLER_21_225
*470 FILLER_21_233
*471 FILLER_21_25
*472 FILLER_21_254
*473 FILLER_21_278
*474 FILLER_21_281
*475 FILLER_21_293
*476 FILLER_21_3
*477 FILLER_21_49
*478 FILLER_21_55
*479 FILLER_21_57
*480 FILLER_21_69
*481 FILLER_21_81
*482 FILLER_21_93
*483 FILLER_22_109
*484 FILLER_22_121
*485 FILLER_22_133
*486 FILLER_22_139
*487 FILLER_22_141
*488 FILLER_22_153
*489 FILLER_22_165
*490 FILLER_22_177
*491 FILLER_22_189
*492 FILLER_22_195
*493 FILLER_22_197
*494 FILLER_22_209
*495 FILLER_22_221
*496 FILLER_22_229
*497 FILLER_22_25
*498 FILLER_22_250
*499 FILLER_22_253
*500 FILLER_22_265
*501 FILLER_22_29
*502 FILLER_22_297
*503 FILLER_22_3
*504 FILLER_22_51
*505 FILLER_22_63
*506 FILLER_22_75
*507 FILLER_22_83
*508 FILLER_22_85
*509 FILLER_22_97
*510 FILLER_23_105
*511 FILLER_23_111
*512 FILLER_23_113
*513 FILLER_23_125
*514 FILLER_23_137
*515 FILLER_23_149
*516 FILLER_23_161
*517 FILLER_23_167
*518 FILLER_23_169
*519 FILLER_23_181
*520 FILLER_23_193
*521 FILLER_23_205
*522 FILLER_23_217
*523 FILLER_23_223
*524 FILLER_23_225
*525 FILLER_23_237
*526 FILLER_23_249
*527 FILLER_23_25
*528 FILLER_23_257
*529 FILLER_23_278
*530 FILLER_23_281
*531 FILLER_23_293
*532 FILLER_23_3
*533 FILLER_23_37
*534 FILLER_23_49
*535 FILLER_23_55
*536 FILLER_23_57
*537 FILLER_23_69
*538 FILLER_23_81
*539 FILLER_23_93
*540 FILLER_24_109
*541 FILLER_24_121
*542 FILLER_24_133
*543 FILLER_24_139
*544 FILLER_24_141
*545 FILLER_24_153
*546 FILLER_24_165
*547 FILLER_24_177
*548 FILLER_24_189
*549 FILLER_24_195
*550 FILLER_24_197
*551 FILLER_24_209
*552 FILLER_24_221
*553 FILLER_24_233
*554 FILLER_24_245
*555 FILLER_24_25
*556 FILLER_24_251
*557 FILLER_24_253
*558 FILLER_24_265
*559 FILLER_24_29
*560 FILLER_24_297
*561 FILLER_24_3
*562 FILLER_24_41
*563 FILLER_24_53
*564 FILLER_24_65
*565 FILLER_24_77
*566 FILLER_24_83
*567 FILLER_24_85
*568 FILLER_24_97
*569 FILLER_25_105
*570 FILLER_25_111
*571 FILLER_25_113
*572 FILLER_25_125
*573 FILLER_25_137
*574 FILLER_25_149
*575 FILLER_25_15
*576 FILLER_25_161
*577 FILLER_25_167
*578 FILLER_25_169
*579 FILLER_25_181
*580 FILLER_25_193
*581 FILLER_25_205
*582 FILLER_25_217
*583 FILLER_25_223
*584 FILLER_25_225
*585 FILLER_25_237
*586 FILLER_25_249
*587 FILLER_25_257
*588 FILLER_25_27
*589 FILLER_25_278
*590 FILLER_25_281
*591 FILLER_25_293
*592 FILLER_25_3
*593 FILLER_25_39
*594 FILLER_25_51
*595 FILLER_25_55
*596 FILLER_25_57
*597 FILLER_25_69
*598 FILLER_25_81
*599 FILLER_25_93
*600 FILLER_26_109
*601 FILLER_26_121
*602 FILLER_26_133
*603 FILLER_26_139
*604 FILLER_26_141
*605 FILLER_26_15
*606 FILLER_26_153
*607 FILLER_26_165
*608 FILLER_26_177
*609 FILLER_26_189
*610 FILLER_26_195
*611 FILLER_26_197
*612 FILLER_26_209
*613 FILLER_26_221
*614 FILLER_26_233
*615 FILLER_26_245
*616 FILLER_26_251
*617 FILLER_26_253
*618 FILLER_26_265
*619 FILLER_26_27
*620 FILLER_26_29
*621 FILLER_26_297
*622 FILLER_26_3
*623 FILLER_26_41
*624 FILLER_26_53
*625 FILLER_26_65
*626 FILLER_26_77
*627 FILLER_26_83
*628 FILLER_26_85
*629 FILLER_26_97
*630 FILLER_27_109
*631 FILLER_27_113
*632 FILLER_27_125
*633 FILLER_27_137
*634 FILLER_27_141
*635 FILLER_27_15
*636 FILLER_27_153
*637 FILLER_27_165
*638 FILLER_27_169
*639 FILLER_27_181
*640 FILLER_27_193
*641 FILLER_27_197
*642 FILLER_27_209
*643 FILLER_27_221
*644 FILLER_27_225
*645 FILLER_27_237
*646 FILLER_27_249
*647 FILLER_27_253
*648 FILLER_27_265
*649 FILLER_27_27
*650 FILLER_27_277
*651 FILLER_27_281
*652 FILLER_27_29
*653 FILLER_27_293
*654 FILLER_27_3
*655 FILLER_27_41
*656 FILLER_27_53
*657 FILLER_27_57
*658 FILLER_27_69
*659 FILLER_27_81
*660 FILLER_27_85
*661 FILLER_27_97
*662 FILLER_2_109
*663 FILLER_2_121
*664 FILLER_2_133
*665 FILLER_2_139
*666 FILLER_2_141
*667 FILLER_2_15
*668 FILLER_2_153
*669 FILLER_2_165
*670 FILLER_2_177
*671 FILLER_2_189
*672 FILLER_2_195
*673 FILLER_2_197
*674 FILLER_2_209
*675 FILLER_2_221
*676 FILLER_2_233
*677 FILLER_2_245
*678 FILLER_2_251
*679 FILLER_2_253
*680 FILLER_2_265
*681 FILLER_2_27
*682 FILLER_2_29
*683 FILLER_2_297
*684 FILLER_2_3
*685 FILLER_2_41
*686 FILLER_2_53
*687 FILLER_2_65
*688 FILLER_2_77
*689 FILLER_2_83
*690 FILLER_2_85
*691 FILLER_2_97
*692 FILLER_3_105
*693 FILLER_3_111
*694 FILLER_3_113
*695 FILLER_3_125
*696 FILLER_3_137
*697 FILLER_3_149
*698 FILLER_3_15
*699 FILLER_3_161
*700 FILLER_3_167
*701 FILLER_3_169
*702 FILLER_3_181
*703 FILLER_3_193
*704 FILLER_3_205
*705 FILLER_3_217
*706 FILLER_3_223
*707 FILLER_3_225
*708 FILLER_3_237
*709 FILLER_3_249
*710 FILLER_3_257
*711 FILLER_3_27
*712 FILLER_3_278
*713 FILLER_3_281
*714 FILLER_3_293
*715 FILLER_3_3
*716 FILLER_3_39
*717 FILLER_3_51
*718 FILLER_3_55
*719 FILLER_3_57
*720 FILLER_3_69
*721 FILLER_3_81
*722 FILLER_3_93
*723 FILLER_4_109
*724 FILLER_4_121
*725 FILLER_4_133
*726 FILLER_4_139
*727 FILLER_4_141
*728 FILLER_4_153
*729 FILLER_4_165
*730 FILLER_4_177
*731 FILLER_4_189
*732 FILLER_4_195
*733 FILLER_4_197
*734 FILLER_4_209
*735 FILLER_4_221
*736 FILLER_4_233
*737 FILLER_4_245
*738 FILLER_4_25
*739 FILLER_4_251
*740 FILLER_4_253
*741 FILLER_4_265
*742 FILLER_4_29
*743 FILLER_4_297
*744 FILLER_4_3
*745 FILLER_4_41
*746 FILLER_4_53
*747 FILLER_4_65
*748 FILLER_4_77
*749 FILLER_4_83
*750 FILLER_4_85
*751 FILLER_4_97
*752 FILLER_5_105
*753 FILLER_5_111
*754 FILLER_5_113
*755 FILLER_5_125
*756 FILLER_5_137
*757 FILLER_5_149
*758 FILLER_5_161
*759 FILLER_5_167
*760 FILLER_5_169
*761 FILLER_5_181
*762 FILLER_5_193
*763 FILLER_5_205
*764 FILLER_5_217
*765 FILLER_5_223
*766 FILLER_5_225
*767 FILLER_5_233
*768 FILLER_5_25
*769 FILLER_5_254
*770 FILLER_5_278
*771 FILLER_5_281
*772 FILLER_5_293
*773 FILLER_5_3
*774 FILLER_5_37
*775 FILLER_5_49
*776 FILLER_5_55
*777 FILLER_5_57
*778 FILLER_5_69
*779 FILLER_5_81
*780 FILLER_5_93
*781 FILLER_6_109
*782 FILLER_6_121
*783 FILLER_6_133
*784 FILLER_6_139
*785 FILLER_6_141
*786 FILLER_6_153
*787 FILLER_6_165
*788 FILLER_6_177
*789 FILLER_6_189
*790 FILLER_6_195
*791 FILLER_6_197
*792 FILLER_6_209
*793 FILLER_6_221
*794 FILLER_6_229
*795 FILLER_6_25
*796 FILLER_6_250
*797 FILLER_6_253
*798 FILLER_6_265
*799 FILLER_6_29
*800 FILLER_6_297
*801 FILLER_6_3
*802 FILLER_6_51
*803 FILLER_6_63
*804 FILLER_6_75
*805 FILLER_6_83
*806 FILLER_6_85
*807 FILLER_6_97
*808 FILLER_7_105
*809 FILLER_7_111
*810 FILLER_7_113
*811 FILLER_7_125
*812 FILLER_7_137
*813 FILLER_7_149
*814 FILLER_7_161
*815 FILLER_7_167
*816 FILLER_7_169
*817 FILLER_7_181
*818 FILLER_7_193
*819 FILLER_7_205
*820 FILLER_7_217
*821 FILLER_7_223
*822 FILLER_7_225
*823 FILLER_7_233
*824 FILLER_7_25
*825 FILLER_7_254
*826 FILLER_7_278
*827 FILLER_7_281
*828 FILLER_7_293
*829 FILLER_7_3
*830 FILLER_7_49
*831 FILLER_7_55
*832 FILLER_7_57
*833 FILLER_7_69
*834 FILLER_7_81
*835 FILLER_7_93
*836 FILLER_8_109
*837 FILLER_8_121
*838 FILLER_8_133
*839 FILLER_8_139
*840 FILLER_8_141
*841 FILLER_8_153
*842 FILLER_8_165
*843 FILLER_8_177
*844 FILLER_8_189
*845 FILLER_8_195
*846 FILLER_8_197
*847 FILLER_8_209
*848 FILLER_8_221
*849 FILLER_8_229
*850 FILLER_8_25
*851 FILLER_8_250
*852 FILLER_8_253
*853 FILLER_8_265
*854 FILLER_8_287
*855 FILLER_8_29
*856 FILLER_8_3
*857 FILLER_8_51
*858 FILLER_8_63
*859 FILLER_8_75
*860 FILLER_8_83
*861 FILLER_8_85
*862 FILLER_8_97
*863 FILLER_9_103
*864 FILLER_9_111
*865 FILLER_9_113
*866 FILLER_9_125
*867 FILLER_9_137
*868 FILLER_9_149
*869 FILLER_9_161
*870 FILLER_9_167
*871 FILLER_9_169
*872 FILLER_9_181
*873 FILLER_9_193
*874 FILLER_9_201
*875 FILLER_9_222
*876 FILLER_9_225
*877 FILLER_9_233
*878 FILLER_9_25
*879 FILLER_9_254
*880 FILLER_9_278
*881 FILLER_9_281
*882 FILLER_9_293
*883 FILLER_9_3
*884 FILLER_9_49
*885 FILLER_9_55
*886 FILLER_9_57
*887 FILLER_9_79
*888 FILLER_9_91
*889 PHY_0
*890 PHY_1
*891 PHY_10
*892 PHY_11
*893 PHY_12
*894 PHY_13
*895 PHY_14
*896 PHY_15
*897 PHY_16
*898 PHY_17
*899 PHY_18
*900 PHY_19
*901 PHY_2
*902 PHY_20
*903 PHY_21
*904 PHY_22
*905 PHY_23
*906 PHY_24
*907 PHY_25
*908 PHY_26
*909 PHY_27
*910 PHY_28
*911 PHY_29
*912 PHY_3
*913 PHY_30
*914 PHY_31
*915 PHY_32
*916 PHY_33
*917 PHY_34
*918 PHY_35
*919 PHY_36
*920 PHY_37
*921 PHY_38
*922 PHY_39
*923 PHY_4
*924 PHY_40
*925 PHY_41
*926 PHY_42
*927 PHY_43
*928 PHY_44
*929 PHY_45
*930 PHY_46
*931 PHY_47
*932 PHY_48
*933 PHY_49
*934 PHY_5
*935 PHY_50
*936 PHY_51
*937 PHY_52
*938 PHY_53
*939 PHY_54
*940 PHY_55
*941 PHY_6
*942 PHY_7
*943 PHY_8
*944 PHY_9
*945 TAP_100
*946 TAP_101
*947 TAP_102
*948 TAP_103
*949 TAP_104
*950 TAP_105
*951 TAP_106
*952 TAP_107
*953 TAP_108
*954 TAP_109
*955 TAP_110
*956 TAP_111
*957 TAP_112
*958 TAP_113
*959 TAP_114
*960 TAP_115
*961 TAP_116
*962 TAP_117
*963 TAP_118
*964 TAP_119
*965 TAP_120
*966 TAP_121
*967 TAP_122
*968 TAP_123
*969 TAP_124
*970 TAP_125
*971 TAP_126
*972 TAP_127
*973 TAP_128
*974 TAP_129
*975 TAP_130
*976 TAP_131
*977 TAP_132
*978 TAP_133
*979 TAP_134
*980 TAP_135
*981 TAP_136
*982 TAP_137
*983 TAP_138
*984 TAP_139
*985 TAP_140
*986 TAP_141
*987 TAP_142
*988 TAP_143
*989 TAP_144
*990 TAP_145
*991 TAP_146
*992 TAP_147
*993 TAP_148
*994 TAP_149
*995 TAP_150
*996 TAP_151
*997 TAP_152
*998 TAP_153
*999 TAP_154
*1000 TAP_155
*1001 TAP_156
*1002 TAP_157
*1003 TAP_158
*1004 TAP_159
*1005 TAP_160
*1006 TAP_161
*1007 TAP_162
*1008 TAP_163
*1009 TAP_164
*1010 TAP_165
*1011 TAP_166
*1012 TAP_167
*1013 TAP_168
*1014 TAP_169
*1015 TAP_170
*1016 TAP_171
*1017 TAP_172
*1018 TAP_173
*1019 TAP_174
*1020 TAP_175
*1021 TAP_176
*1022 TAP_177
*1023 TAP_178
*1024 TAP_179
*1025 TAP_180
*1026 TAP_181
*1027 TAP_182
*1028 TAP_183
*1029 TAP_184
*1030 TAP_185
*1031 TAP_186
*1032 TAP_187
*1033 TAP_188
*1034 TAP_189
*1035 TAP_190
*1036 TAP_191
*1037 TAP_192
*1038 TAP_193
*1039 TAP_194
*1040 TAP_195
*1041 TAP_196
*1042 TAP_197
*1043 TAP_198
*1044 TAP_199
*1045 TAP_200
*1046 TAP_201
*1047 TAP_202
*1048 TAP_203
*1049 TAP_204
*1050 TAP_205
*1051 TAP_56
*1052 TAP_57
*1053 TAP_58
*1054 TAP_59
*1055 TAP_60
*1056 TAP_61
*1057 TAP_62
*1058 TAP_63
*1059 TAP_64
*1060 TAP_65
*1061 TAP_66
*1062 TAP_67
*1063 TAP_68
*1064 TAP_69
*1065 TAP_70
*1066 TAP_71
*1067 TAP_72
*1068 TAP_73
*1069 TAP_74
*1070 TAP_75
*1071 TAP_76
*1072 TAP_77
*1073 TAP_78
*1074 TAP_79
*1075 TAP_80
*1076 TAP_81
*1077 TAP_82
*1078 TAP_83
*1079 TAP_84
*1080 TAP_85
*1081 TAP_86
*1082 TAP_87
*1083 TAP_88
*1084 TAP_89
*1085 TAP_90
*1086 TAP_91
*1087 TAP_92
*1088 TAP_93
*1089 TAP_94
*1090 TAP_95
*1091 TAP_96
*1092 TAP_97
*1093 TAP_98
*1094 TAP_99
*1095 _0_
*1096 some_customcells\.genblk1\[100\]\.name_of_cell
*1097 some_customcells\.genblk1\[101\]\.name_of_cell
*1098 some_customcells\.genblk1\[102\]\.name_of_cell
*1099 some_customcells\.genblk1\[103\]\.name_of_cell
*1100 some_customcells\.genblk1\[104\]\.name_of_cell
*1101 some_customcells\.genblk1\[105\]\.name_of_cell
*1102 some_customcells\.genblk1\[106\]\.name_of_cell
*1103 some_customcells\.genblk1\[107\]\.name_of_cell
*1104 some_customcells\.genblk1\[108\]\.name_of_cell
*1105 some_customcells\.genblk1\[109\]\.name_of_cell
*1106 some_customcells\.genblk1\[10\]\.name_of_cell
*1107 some_customcells\.genblk1\[110\]\.name_of_cell
*1108 some_customcells\.genblk1\[111\]\.name_of_cell
*1109 some_customcells\.genblk1\[112\]\.name_of_cell
*1110 some_customcells\.genblk1\[113\]\.name_of_cell
*1111 some_customcells\.genblk1\[114\]\.name_of_cell
*1112 some_customcells\.genblk1\[115\]\.name_of_cell
*1113 some_customcells\.genblk1\[116\]\.name_of_cell
*1114 some_customcells\.genblk1\[117\]\.name_of_cell
*1115 some_customcells\.genblk1\[118\]\.name_of_cell
*1116 some_customcells\.genblk1\[119\]\.name_of_cell
*1117 some_customcells\.genblk1\[11\]\.name_of_cell
*1118 some_customcells\.genblk1\[120\]\.name_of_cell
*1119 some_customcells\.genblk1\[121\]\.name_of_cell
*1120 some_customcells\.genblk1\[122\]\.name_of_cell
*1121 some_customcells\.genblk1\[123\]\.name_of_cell
*1122 some_customcells\.genblk1\[12\]\.name_of_cell
*1123 some_customcells\.genblk1\[13\]\.name_of_cell
*1124 some_customcells\.genblk1\[14\]\.name_of_cell
*1125 some_customcells\.genblk1\[15\]\.name_of_cell
*1126 some_customcells\.genblk1\[16\]\.name_of_cell
*1127 some_customcells\.genblk1\[17\]\.name_of_cell
*1128 some_customcells\.genblk1\[18\]\.name_of_cell
*1129 some_customcells\.genblk1\[19\]\.name_of_cell
*1130 some_customcells\.genblk1\[1\]\.name_of_cell
*1131 some_customcells\.genblk1\[20\]\.name_of_cell
*1132 some_customcells\.genblk1\[21\]\.name_of_cell
*1133 some_customcells\.genblk1\[22\]\.name_of_cell
*1134 some_customcells\.genblk1\[23\]\.name_of_cell
*1135 some_customcells\.genblk1\[24\]\.name_of_cell
*1136 some_customcells\.genblk1\[25\]\.name_of_cell
*1137 some_customcells\.genblk1\[26\]\.name_of_cell
*1138 some_customcells\.genblk1\[27\]\.name_of_cell
*1139 some_customcells\.genblk1\[28\]\.name_of_cell
*1140 some_customcells\.genblk1\[29\]\.name_of_cell
*1141 some_customcells\.genblk1\[2\]\.name_of_cell
*1142 some_customcells\.genblk1\[30\]\.name_of_cell
*1143 some_customcells\.genblk1\[31\]\.name_of_cell
*1144 some_customcells\.genblk1\[32\]\.name_of_cell
*1145 some_customcells\.genblk1\[33\]\.name_of_cell
*1146 some_customcells\.genblk1\[34\]\.name_of_cell
*1147 some_customcells\.genblk1\[35\]\.name_of_cell
*1148 some_customcells\.genblk1\[36\]\.name_of_cell
*1149 some_customcells\.genblk1\[37\]\.name_of_cell
*1150 some_customcells\.genblk1\[38\]\.name_of_cell
*1151 some_customcells\.genblk1\[39\]\.name_of_cell
*1152 some_customcells\.genblk1\[3\]\.name_of_cell
*1153 some_customcells\.genblk1\[40\]\.name_of_cell
*1154 some_customcells\.genblk1\[41\]\.name_of_cell
*1155 some_customcells\.genblk1\[42\]\.name_of_cell
*1156 some_customcells\.genblk1\[43\]\.name_of_cell
*1157 some_customcells\.genblk1\[44\]\.name_of_cell
*1158 some_customcells\.genblk1\[45\]\.name_of_cell
*1159 some_customcells\.genblk1\[46\]\.name_of_cell
*1160 some_customcells\.genblk1\[47\]\.name_of_cell
*1161 some_customcells\.genblk1\[48\]\.name_of_cell
*1162 some_customcells\.genblk1\[49\]\.name_of_cell
*1163 some_customcells\.genblk1\[4\]\.name_of_cell
*1164 some_customcells\.genblk1\[50\]\.name_of_cell
*1165 some_customcells\.genblk1\[51\]\.name_of_cell
*1166 some_customcells\.genblk1\[52\]\.name_of_cell
*1167 some_customcells\.genblk1\[53\]\.name_of_cell
*1168 some_customcells\.genblk1\[54\]\.name_of_cell
*1169 some_customcells\.genblk1\[55\]\.name_of_cell
*1170 some_customcells\.genblk1\[56\]\.name_of_cell
*1171 some_customcells\.genblk1\[57\]\.name_of_cell
*1172 some_customcells\.genblk1\[58\]\.name_of_cell
*1173 some_customcells\.genblk1\[59\]\.name_of_cell
*1174 some_customcells\.genblk1\[5\]\.name_of_cell
*1175 some_customcells\.genblk1\[60\]\.name_of_cell
*1176 some_customcells\.genblk1\[61\]\.name_of_cell
*1177 some_customcells\.genblk1\[62\]\.name_of_cell
*1178 some_customcells\.genblk1\[63\]\.name_of_cell
*1179 some_customcells\.genblk1\[64\]\.name_of_cell
*1180 some_customcells\.genblk1\[65\]\.name_of_cell
*1181 some_customcells\.genblk1\[66\]\.name_of_cell
*1182 some_customcells\.genblk1\[67\]\.name_of_cell
*1183 some_customcells\.genblk1\[68\]\.name_of_cell
*1184 some_customcells\.genblk1\[69\]\.name_of_cell
*1185 some_customcells\.genblk1\[6\]\.name_of_cell
*1186 some_customcells\.genblk1\[70\]\.name_of_cell
*1187 some_customcells\.genblk1\[71\]\.name_of_cell
*1188 some_customcells\.genblk1\[72\]\.name_of_cell
*1189 some_customcells\.genblk1\[73\]\.name_of_cell
*1190 some_customcells\.genblk1\[74\]\.name_of_cell
*1191 some_customcells\.genblk1\[75\]\.name_of_cell
*1192 some_customcells\.genblk1\[76\]\.name_of_cell
*1193 some_customcells\.genblk1\[77\]\.name_of_cell
*1194 some_customcells\.genblk1\[78\]\.name_of_cell
*1195 some_customcells\.genblk1\[79\]\.name_of_cell
*1196 some_customcells\.genblk1\[7\]\.name_of_cell
*1197 some_customcells\.genblk1\[80\]\.name_of_cell
*1198 some_customcells\.genblk1\[81\]\.name_of_cell
*1199 some_customcells\.genblk1\[82\]\.name_of_cell
*1200 some_customcells\.genblk1\[83\]\.name_of_cell
*1201 some_customcells\.genblk1\[84\]\.name_of_cell
*1202 some_customcells\.genblk1\[85\]\.name_of_cell
*1203 some_customcells\.genblk1\[86\]\.name_of_cell
*1204 some_customcells\.genblk1\[87\]\.name_of_cell
*1205 some_customcells\.genblk1\[88\]\.name_of_cell
*1206 some_customcells\.genblk1\[89\]\.name_of_cell
*1207 some_customcells\.genblk1\[8\]\.name_of_cell
*1208 some_customcells\.genblk1\[90\]\.name_of_cell
*1209 some_customcells\.genblk1\[91\]\.name_of_cell
*1210 some_customcells\.genblk1\[92\]\.name_of_cell
*1211 some_customcells\.genblk1\[93\]\.name_of_cell
*1212 some_customcells\.genblk1\[94\]\.name_of_cell
*1213 some_customcells\.genblk1\[95\]\.name_of_cell
*1214 some_customcells\.genblk1\[96\]\.name_of_cell
*1215 some_customcells\.genblk1\[97\]\.name_of_cell
*1216 some_customcells\.genblk1\[98\]\.name_of_cell
*1217 some_customcells\.genblk1\[99\]\.name_of_cell
*1218 some_customcells\.genblk1\[9\]\.name_of_cell

*PORTS
in I
out O

*D_NET *3 0.00225869
*CONN
*P in I
*I *1130:in I *D sky130_customcell
*CAP
1 in 0.00112935
2 *1130:in 0.00112935
3 *1130:in *1106:in 0
4 *1130:in *1122:in 0
5 *1130:in *1142:in 0
*RES
1 in *1130:in 17.8708 
*END

*D_NET *4 0.000495001
*CONN
*P out O
*I *1095:Y O *D sky130_fd_sc_hd__inv_2
*CAP
1 out 0.0002475
2 *1095:Y 0.0002475
*RES
1 *1095:Y out 5.02157 
*END

*D_NET *7 0.00333073
*CONN
*I *1096:in I *D sky130_customcell
*I *1217:out O *D sky130_customcell
*CAP
1 *1096:in 0.00166537
2 *1217:out 0.00166537
3 *1096:in *1104:in 0
4 *1096:in *1211:in 0
5 *1096:in *1213:in 0
6 *1096:in *1214:in 0
7 *1096:in *1215:in 0
*RES
1 *1217:out *1096:in 38.67 
*END

*D_NET *8 0.00130715
*CONN
*I *1097:in I *D sky130_customcell
*I *1096:out O *D sky130_customcell
*CAP
1 *1097:in 0.000653577
2 *1096:out 0.000653577
3 *1097:in *1095:A 0
4 *1097:in *1104:in 0
*RES
1 *1096:out *1097:in 19.14 
*END

*D_NET *9 0.00179907
*CONN
*I *1098:in I *D sky130_customcell
*I *1097:out O *D sky130_customcell
*CAP
1 *1098:in 0.000899534
2 *1097:out 0.000899534
3 *1098:in *1105:in 0
4 *1098:in *1107:in 0
*RES
1 *1097:out *1098:in 24.255 
*END

*D_NET *10 0.00187374
*CONN
*I *1099:in I *D sky130_customcell
*I *1098:out O *D sky130_customcell
*CAP
1 *1099:in 0.00093687
2 *1098:out 0.00093687
3 *1099:in *1120:in 0
4 *1099:in *1121:in 0
5 *1099:in *1194:in 0
6 *1099:in *1197:in 0
7 *1099:in *1199:in 0
8 *1099:in *23:23 0
*RES
1 *1098:out *1099:in 25.0125 
*END

*D_NET *11 0.00239806
*CONN
*I *1100:in I *D sky130_customcell
*I *1099:out O *D sky130_customcell
*CAP
1 *1100:in 0.00119903
2 *1099:out 0.00119903
3 *1100:in *1200:in 0
4 *1100:in *1202:in 0
5 *1100:in *1209:in 0
6 *1100:in *12:11 0
*RES
1 *1099:out *1100:in 29.835 
*END

*D_NET *12 0.00464679
*CONN
*I *1101:in I *D sky130_customcell
*I *1100:out O *D sky130_customcell
*CAP
1 *1101:in 0
2 *1100:out 0.0023234
3 *12:11 0.0023234
4 *12:11 *1120:in 0