* NGSPICE file created from customcells.ext - technology: sky130A

* Black-box entry subcircuit for sky130_fd_sc_hd__tapvpwrvgnd_1 abstract view
.subckt sky130_fd_sc_hd__tapvpwrvgnd_1 VGND VPWR
.ends

* Black-box entry subcircuit for sky130_ef_sc_hd__decap_12 abstract view
.subckt sky130_ef_sc_hd__decap_12 VGND VPWR VPB VNB
.ends

* Black-box entry subcircuit for sky130_fd_sc_hd__decap_6 abstract view
.subckt sky130_fd_sc_hd__decap_6 VGND VNB VPB VPWR
.ends

* Black-box entry subcircuit for sky130_fd_sc_hd__fill_1 abstract view
.subckt sky130_fd_sc_hd__fill_1 VGND VNB VPB VPWR
.ends

* Black-box entry subcircuit for sky130_customcell abstract view
.subckt sky130_customcell in out VPWR VGND VPB VNB
.ends

* Black-box entry subcircuit for sky130_fd_sc_hd__decap_4 abstract view
.subckt sky130_fd_sc_hd__decap_4 VGND VNB VPB VPWR
.ends

* Black-box entry subcircuit for sky130_fd_sc_hd__decap_8 abstract view
.subckt sky130_fd_sc_hd__decap_8 VGND VNB VPB VPWR
.ends

* Black-box entry subcircuit for sky130_fd_sc_hd__fill_2 abstract view
.subckt sky130_fd_sc_hd__fill_2 VGND VNB VPB VPWR
.ends

* Black-box entry subcircuit for sky130_fd_sc_hd__decap_3 abstract view
.subckt sky130_fd_sc_hd__decap_3 VGND VNB VPB VPWR
.ends

* Black-box entry subcircuit for sky130_fd_sc_hd__inv_2 abstract view
.subckt sky130_fd_sc_hd__inv_2 A VGND VNB VPB VPWR Y
.ends

.subckt customcells VGND VPWR in out
XTAP_199 VGND VPWR sky130_fd_sc_hd__tapvpwrvgnd_1
XTAP_188 VGND VPWR sky130_fd_sc_hd__tapvpwrvgnd_1
XTAP_177 VGND VPWR sky130_fd_sc_hd__tapvpwrvgnd_1
XFILLER_22_177 VGND VPWR VPWR VGND sky130_ef_sc_hd__decap_12
XFILLER_22_133 VGND VGND VPWR VPWR sky130_fd_sc_hd__decap_6
XFILLER_26_85 VGND VPWR VPWR VGND sky130_ef_sc_hd__decap_12
XFILLER_26_41 VGND VPWR VPWR VGND sky130_ef_sc_hd__decap_12
XFILLER_9_137 VGND VPWR VPWR VGND sky130_ef_sc_hd__decap_12
XFILLER_27_225 VGND VPWR VPWR VGND sky130_ef_sc_hd__decap_12
XFILLER_18_203 VGND VGND VPWR VPWR sky130_fd_sc_hd__fill_1
Xsome_customcells.genblk1\[63\].name_of_cell some_customcells.genblk1\[63\].name_of_cell/in
+ some_customcells.genblk1\[64\].name_of_cell/in VPWR VGND VPWR VGND sky130_customcell
XFILLER_0_57 VGND VPWR VPWR VGND sky130_ef_sc_hd__decap_12
XFILLER_2_121 VGND VPWR VPWR VGND sky130_ef_sc_hd__decap_12
XFILLER_2_165 VGND VPWR VPWR VGND sky130_ef_sc_hd__decap_12
XFILLER_9_55 VGND VGND VPWR VPWR sky130_fd_sc_hd__fill_1
XFILLER_20_253 VGND VPWR VPWR VGND sky130_ef_sc_hd__decap_12
XFILLER_18_97 VGND VPWR VPWR VGND sky130_ef_sc_hd__decap_12
XFILLER_26_109 VGND VPWR VPWR VGND sky130_ef_sc_hd__decap_12
XFILLER_19_161 VGND VGND VPWR VPWR sky130_fd_sc_hd__decap_6
XFILLER_13_3 VGND VGND VPWR VPWR sky130_fd_sc_hd__decap_4
XFILLER_3_293 VGND VGND VPWR VPWR sky130_fd_sc_hd__decap_6
XFILLER_6_23 VGND VGND VPWR VPWR sky130_fd_sc_hd__decap_4
Xsome_customcells.genblk1\[56\].name_of_cell some_customcells.genblk1\[56\].name_of_cell/in
+ some_customcells.genblk1\[57\].name_of_cell/in VPWR VGND VPWR VGND sky130_customcell
XTAP_189 VGND VPWR sky130_fd_sc_hd__tapvpwrvgnd_1
XTAP_178 VGND VPWR sky130_fd_sc_hd__tapvpwrvgnd_1
XFILLER_22_189 VGND VGND VPWR VPWR sky130_fd_sc_hd__decap_6
XTAP_167 VGND VPWR sky130_fd_sc_hd__tapvpwrvgnd_1
XTAP_156 VGND VPWR sky130_fd_sc_hd__tapvpwrvgnd_1
XTAP_145 VGND VPWR sky130_fd_sc_hd__tapvpwrvgnd_1
XTAP_134 VGND VPWR sky130_fd_sc_hd__tapvpwrvgnd_1
XTAP_123 VGND VPWR sky130_fd_sc_hd__tapvpwrvgnd_1
XTAP_112 VGND VPWR sky130_fd_sc_hd__tapvpwrvgnd_1
XTAP_101 VGND VPWR sky130_fd_sc_hd__tapvpwrvgnd_1
XFILLER_26_97 VGND VPWR VPWR VGND sky130_ef_sc_hd__decap_12
XFILLER_26_53 VGND VPWR VPWR VGND sky130_ef_sc_hd__decap_12
XFILLER_13_189 VGND VGND VPWR VPWR sky130_fd_sc_hd__decap_4
XFILLER_3_57 VGND VPWR VPWR VGND sky130_ef_sc_hd__decap_12
XFILLER_9_105 VGND VGND VPWR VPWR sky130_fd_sc_hd__decap_6
XFILLER_9_149 VGND VPWR VPWR VGND sky130_ef_sc_hd__decap_12
XFILLER_27_237 VGND VPWR VPWR VGND sky130_ef_sc_hd__decap_12
XFILLER_18_248 VGND VGND VPWR VPWR sky130_fd_sc_hd__decap_4
XFILLER_17_281 VGND VPWR VPWR VGND sky130_ef_sc_hd__decap_12
XFILLER_17_270 VGND VGND VPWR VPWR sky130_fd_sc_hd__decap_8
XFILLER_14_295 VGND VGND VPWR VPWR sky130_fd_sc_hd__decap_4
XFILLER_14_273 VGND VPWR VPWR VGND sky130_ef_sc_hd__decap_12
Xsome_customcells.genblk1\[49\].name_of_cell some_customcells.genblk1\[49\].name_of_cell/in
+ some_customcells.genblk1\[50\].name_of_cell/in VPWR VGND VPWR VGND sky130_customcell
XFILLER_0_69 VGND VPWR VPWR VGND sky130_ef_sc_hd__decap_12
XFILLER_2_133 VGND VGND VPWR VPWR sky130_fd_sc_hd__decap_6
XFILLER_2_177 VGND VPWR VPWR VGND sky130_ef_sc_hd__decap_12
XFILLER_9_23 VGND VGND VPWR VPWR sky130_fd_sc_hd__decap_4
XFILLER_20_287 VGND VPWR VPWR VGND sky130_ef_sc_hd__decap_12
XFILLER_20_265 VGND VGND VPWR VPWR sky130_fd_sc_hd__fill_2
XFILLER_20_221 VGND VGND VPWR VPWR sky130_fd_sc_hd__decap_6
XFILLER_7_225 VGND VGND VPWR VPWR sky130_fd_sc_hd__decap_6
XFILLER_15_7 VGND VGND VPWR VPWR sky130_fd_sc_hd__fill_1
Xsome_customcells.genblk1\[20\].name_of_cell some_customcells.genblk1\[20\].name_of_cell/in
+ some_customcells.genblk1\[21\].name_of_cell/in VPWR VGND VPWR VGND sky130_customcell
Xsome_customcells.genblk1\[95\].name_of_cell some_customcells.genblk1\[95\].name_of_cell/in
+ some_customcells.genblk1\[96\].name_of_cell/in VPWR VGND VPWR VGND sky130_customcell
XFILLER_0_253 VGND VPWR VPWR VGND sky130_ef_sc_hd__decap_12
XTAP_179 VGND VPWR sky130_fd_sc_hd__tapvpwrvgnd_1
XTAP_168 VGND VPWR sky130_fd_sc_hd__tapvpwrvgnd_1
XTAP_157 VGND VPWR sky130_fd_sc_hd__tapvpwrvgnd_1
XTAP_146 VGND VPWR sky130_fd_sc_hd__tapvpwrvgnd_1
XTAP_135 VGND VPWR sky130_fd_sc_hd__tapvpwrvgnd_1
XTAP_124 VGND VPWR sky130_fd_sc_hd__tapvpwrvgnd_1
XTAP_113 VGND VPWR sky130_fd_sc_hd__tapvpwrvgnd_1
XTAP_102 VGND VPWR sky130_fd_sc_hd__tapvpwrvgnd_1
XFILLER_26_65 VGND VPWR VPWR VGND sky130_ef_sc_hd__decap_12
XFILLER_13_113 VGND VGND VPWR VPWR sky130_fd_sc_hd__decap_6
XFILLER_3_69 VGND VPWR VPWR VGND sky130_ef_sc_hd__decap_12
XFILLER_27_249 VGND VGND VPWR VPWR sky130_fd_sc_hd__decap_3
Xsome_customcells.genblk1\[13\].name_of_cell some_customcells.genblk1\[13\].name_of_cell/in
+ some_customcells.genblk1\[14\].name_of_cell/in VPWR VGND VPWR VGND sky130_customcell
XFILLER_12_56 VGND VGND VPWR VPWR sky130_fd_sc_hd__decap_4
XFILLER_6_109 VGND VPWR VPWR VGND sky130_ef_sc_hd__decap_12
Xsome_customcells.genblk1\[119\].name_of_cell some_customcells.genblk1\[119\].name_of_cell/in
+ some_customcells.genblk1\[120\].name_of_cell/in VPWR VGND VPWR VGND sky130_customcell
XFILLER_17_293 VGND VGND VPWR VPWR sky130_fd_sc_hd__decap_6
XFILLER_23_252 VGND VGND VPWR VPWR sky130_fd_sc_hd__decap_4
XFILLER_23_55 VGND VGND VPWR VPWR sky130_fd_sc_hd__fill_1
XFILLER_14_241 VGND VGND VPWR VPWR sky130_fd_sc_hd__decap_8
Xsome_customcells.genblk1\[88\].name_of_cell some_customcells.genblk1\[88\].name_of_cell/in
+ some_customcells.genblk1\[89\].name_of_cell/in VPWR VGND VPWR VGND sky130_customcell
XFILLER_0_15 VGND VPWR VPWR VGND sky130_ef_sc_hd__decap_12
XFILLER_2_189 VGND VGND VPWR VPWR sky130_fd_sc_hd__decap_6
XFILLER_3_3 VGND VPWR VPWR VGND sky130_ef_sc_hd__decap_12
XFILLER_14_285 VGND VGND VPWR VPWR sky130_fd_sc_hd__decap_6
XFILLER_9_57 VGND VPWR VPWR VGND sky130_ef_sc_hd__decap_12
XFILLER_11_277 VGND VGND VPWR VPWR sky130_fd_sc_hd__decap_3
XFILLER_20_23 VGND VGND VPWR VPWR sky130_fd_sc_hd__decap_4
XFILLER_25_111 VGND VGND VPWR VPWR sky130_fd_sc_hd__fill_1
XFILLER_0_265 VGND VPWR VPWR VGND sky130_ef_sc_hd__decap_12
XFILLER_0_221 VGND VGND VPWR VPWR sky130_fd_sc_hd__decap_3
XTAP_169 VGND VPWR sky130_fd_sc_hd__tapvpwrvgnd_1
XTAP_158 VGND VPWR sky130_fd_sc_hd__tapvpwrvgnd_1
XTAP_147 VGND VPWR sky130_fd_sc_hd__tapvpwrvgnd_1
XTAP_136 VGND VPWR sky130_fd_sc_hd__tapvpwrvgnd_1
XTAP_125 VGND VPWR sky130_fd_sc_hd__tapvpwrvgnd_1
XTAP_114 VGND VPWR sky130_fd_sc_hd__tapvpwrvgnd_1
XTAP_103 VGND VPWR sky130_fd_sc_hd__tapvpwrvgnd_1
XFILLER_26_77 VGND VGND VPWR VPWR sky130_fd_sc_hd__decap_6
XFILLER_3_15 VGND VPWR VPWR VGND sky130_ef_sc_hd__decap_12
XFILLER_8_195 VGND VGND VPWR VPWR sky130_fd_sc_hd__fill_1
Xsome_customcells.genblk1\[52\].name_of_cell some_customcells.genblk1\[52\].name_of_cell/in
+ some_customcells.genblk1\[53\].name_of_cell/in VPWR VGND VPWR VGND sky130_customcell
XFILLER_12_35 VGND VGND VPWR VPWR sky130_fd_sc_hd__fill_1
XFILLER_12_24 VGND VGND VPWR VPWR sky130_fd_sc_hd__decap_4
XFILLER_10_139 VGND VGND VPWR VPWR sky130_fd_sc_hd__fill_1
XFILLER_24_209 VGND VPWR VPWR VGND sky130_ef_sc_hd__decap_12
XFILLER_23_231 VGND VGND VPWR VPWR sky130_fd_sc_hd__fill_1
XFILLER_23_23 VGND VPWR VPWR VGND sky130_ef_sc_hd__decap_12
XFILLER_0_27 VGND VGND VPWR VPWR sky130_fd_sc_hd__fill_1
XFILLER_9_47 VGND VGND VPWR VPWR sky130_fd_sc_hd__decap_8
XFILLER_9_69 VGND VPWR VPWR VGND sky130_ef_sc_hd__decap_12
XFILLER_18_23 VGND VGND VPWR VPWR sky130_fd_sc_hd__decap_4
XFILLER_11_223 VGND VGND VPWR VPWR sky130_fd_sc_hd__fill_1
Xsome_customcells.genblk1\[45\].name_of_cell some_customcells.genblk1\[45\].name_of_cell/in
+ some_customcells.genblk1\[46\].name_of_cell/in VPWR VGND VPWR VGND sky130_customcell
XFILLER_11_245 VGND VGND VPWR VPWR sky130_fd_sc_hd__decap_4
XFILLER_7_205 VGND VPWR VPWR VGND sky130_ef_sc_hd__decap_12
XFILLER_1_81 VGND VPWR VPWR VGND sky130_ef_sc_hd__decap_12
XFILLER_25_167 VGND VGND VPWR VPWR sky130_fd_sc_hd__fill_1
Xsome_customcells.genblk1\[122\].name_of_cell some_customcells.genblk1\[122\].name_of_cell/in
+ some_customcells.genblk1\[123\].name_of_cell/in VPWR VGND VPWR VGND sky130_customcell
XFILLER_15_57 VGND VGND VPWR VPWR sky130_fd_sc_hd__decap_6
XFILLER_0_277 VGND VGND VPWR VPWR sky130_fd_sc_hd__decap_3
XTAP_159 VGND VPWR sky130_fd_sc_hd__tapvpwrvgnd_1
XTAP_148 VGND VPWR sky130_fd_sc_hd__tapvpwrvgnd_1
XFILLER_16_112 VGND VGND VPWR VPWR sky130_fd_sc_hd__decap_4
XTAP_137 VGND VPWR sky130_fd_sc_hd__tapvpwrvgnd_1
XTAP_126 VGND VPWR sky130_fd_sc_hd__tapvpwrvgnd_1
XFILLER_11_3 VGND VGND VPWR VPWR sky130_fd_sc_hd__fill_1
XTAP_115 VGND VPWR sky130_fd_sc_hd__tapvpwrvgnd_1
XTAP_104 VGND VPWR sky130_fd_sc_hd__tapvpwrvgnd_1
XFILLER_21_181 VGND VPWR VPWR VGND sky130_ef_sc_hd__decap_12
Xsome_customcells.genblk1\[91\].name_of_cell some_customcells.genblk1\[91\].name_of_cell/in
+ some_customcells.genblk1\[92\].name_of_cell/in VPWR VGND VPWR VGND sky130_customcell
Xsome_customcells.genblk1\[38\].name_of_cell some_customcells.genblk1\[38\].name_of_cell/in
+ some_customcells.genblk1\[39\].name_of_cell/in VPWR VGND VPWR VGND sky130_customcell
XFILLER_3_27 VGND VPWR VPWR VGND sky130_ef_sc_hd__decap_12
XFILLER_8_141 VGND VPWR VPWR VGND sky130_ef_sc_hd__decap_12
XFILLER_26_295 VGND VGND VPWR VPWR sky130_fd_sc_hd__decap_4
XFILLER_26_273 VGND VGND VPWR VPWR sky130_fd_sc_hd__fill_2
XFILLER_26_251 VGND VGND VPWR VPWR sky130_fd_sc_hd__fill_1
XFILLER_5_111 VGND VGND VPWR VPWR sky130_fd_sc_hd__fill_1
XFILLER_23_276 VGND VGND VPWR VPWR sky130_fd_sc_hd__decap_4
XFILLER_23_57 VGND VPWR VPWR VGND sky130_ef_sc_hd__decap_12
XFILLER_23_35 VGND VPWR VPWR VGND sky130_ef_sc_hd__decap_12
Xsome_customcells.genblk1\[115\].name_of_cell some_customcells.genblk1\[115\].name_of_cell/in
+ some_customcells.genblk1\[116\].name_of_cell/in VPWR VGND VPWR VGND sky130_customcell
Xsome_customcells.genblk1\[84\].name_of_cell some_customcells.genblk1\[84\].name_of_cell/in
+ some_customcells.genblk1\[85\].name_of_cell/in VPWR VGND VPWR VGND sky130_customcell
XFILLER_7_217 VGND VGND VPWR VPWR sky130_fd_sc_hd__decap_6
XFILLER_1_93 VGND VPWR VPWR VGND sky130_ef_sc_hd__decap_12
XFILLER_4_209 VGND VPWR VPWR VGND sky130_ef_sc_hd__decap_12
XFILLER_13_7 VGND VGND VPWR VPWR sky130_fd_sc_hd__fill_1
XFILLER_6_27 VGND VGND VPWR VPWR sky130_fd_sc_hd__fill_1
XFILLER_6_49 VGND VPWR VPWR VGND sky130_ef_sc_hd__decap_12
XFILLER_25_113 VGND VPWR VPWR VGND sky130_ef_sc_hd__decap_12
Xsome_customcells.genblk1\[108\].name_of_cell some_customcells.genblk1\[108\].name_of_cell/in
+ some_customcells.genblk1\[109\].name_of_cell/in VPWR VGND VPWR VGND sky130_customcell
XTAP_149 VGND VPWR sky130_fd_sc_hd__tapvpwrvgnd_1
XTAP_138 VGND VPWR sky130_fd_sc_hd__tapvpwrvgnd_1
XTAP_127 VGND VPWR sky130_fd_sc_hd__tapvpwrvgnd_1
XTAP_116 VGND VPWR sky130_fd_sc_hd__tapvpwrvgnd_1
XTAP_105 VGND VPWR sky130_fd_sc_hd__tapvpwrvgnd_1
XFILLER_7_81 VGND VPWR VPWR VGND sky130_ef_sc_hd__decap_12
XFILLER_21_193 VGND VPWR VPWR VGND sky130_ef_sc_hd__decap_12
Xsome_customcells.genblk1\[77\].name_of_cell some_customcells.genblk1\[77\].name_of_cell/in
+ some_customcells.genblk1\[78\].name_of_cell/in VPWR VGND VPWR VGND sky130_customcell
XFILLER_3_39 VGND VPWR VPWR VGND sky130_ef_sc_hd__decap_12
XFILLER_8_153 VGND VPWR VPWR VGND sky130_ef_sc_hd__decap_12
XFILLER_8_197 VGND VPWR VPWR VGND sky130_ef_sc_hd__decap_12
XFILLER_5_167 VGND VGND VPWR VPWR sky130_fd_sc_hd__fill_1
XFILLER_23_69 VGND VPWR VPWR VGND sky130_ef_sc_hd__decap_12
XFILLER_23_47 VGND VGND VPWR VPWR sky130_fd_sc_hd__decap_8
XFILLER_0_29 VGND VPWR VPWR VGND sky130_ef_sc_hd__decap_12
Xsome_customcells.genblk1\[6\].name_of_cell some_customcells.genblk1\[6\].name_of_cell/in
+ some_customcells.genblk1\[7\].name_of_cell/in VPWR VGND VPWR VGND sky130_customcell
XFILLER_9_281 VGND VPWR VPWR VGND sky130_ef_sc_hd__decap_12
XFILLER_1_181 VGND VPWR VPWR VGND sky130_ef_sc_hd__decap_12
XFILLER_11_269 VGND VGND VPWR VPWR sky130_fd_sc_hd__decap_8
XFILLER_1_3 VGND VPWR VPWR VGND sky130_ef_sc_hd__decap_12
XFILLER_6_273 VGND VGND VPWR VPWR sky130_fd_sc_hd__fill_2
XFILLER_6_295 VGND VGND VPWR VPWR sky130_fd_sc_hd__decap_4
XFILLER_19_111 VGND VGND VPWR VPWR sky130_fd_sc_hd__fill_1
XFILLER_10_81 VGND VGND VPWR VPWR sky130_fd_sc_hd__decap_3
XFILLER_3_276 VGND VGND VPWR VPWR sky130_fd_sc_hd__decap_4
XFILLER_25_169 VGND VPWR VPWR VGND sky130_ef_sc_hd__decap_12
XFILLER_25_125 VGND VPWR VPWR VGND sky130_ef_sc_hd__decap_12
Xsome_customcells.genblk1\[41\].name_of_cell some_customcells.genblk1\[41\].name_of_cell/in
+ some_customcells.genblk1\[42\].name_of_cell/in VPWR VGND VPWR VGND sky130_customcell
XFILLER_16_136 VGND VGND VPWR VPWR sky130_fd_sc_hd__decap_4
XFILLER_22_139 VGND VGND VPWR VPWR sky130_fd_sc_hd__fill_1
XTAP_139 VGND VPWR sky130_fd_sc_hd__tapvpwrvgnd_1
XTAP_128 VGND VPWR sky130_fd_sc_hd__tapvpwrvgnd_1
XTAP_117 VGND VPWR sky130_fd_sc_hd__tapvpwrvgnd_1
XPHY_0 VGND VGND VPWR VPWR sky130_fd_sc_hd__decap_3
XFILLER_7_93 VGND VPWR VPWR VGND sky130_ef_sc_hd__decap_12
XTAP_106 VGND VPWR sky130_fd_sc_hd__tapvpwrvgnd_1
XFILLER_21_161 VGND VGND VPWR VPWR sky130_fd_sc_hd__decap_6
XFILLER_27_209 VGND VPWR VPWR VGND sky130_ef_sc_hd__decap_12
XFILLER_16_91 VGND VGND VPWR VPWR sky130_fd_sc_hd__fill_1
XFILLER_16_80 VGND VGND VPWR VPWR sky130_fd_sc_hd__decap_4
XFILLER_8_121 VGND VPWR VPWR VGND sky130_ef_sc_hd__decap_12
XFILLER_8_165 VGND VPWR VPWR VGND sky130_ef_sc_hd__decap_12
XFILLER_26_253 VGND VPWR VPWR VGND sky130_ef_sc_hd__decap_12
XFILLER_10_109 VGND VPWR VPWR VGND sky130_ef_sc_hd__decap_12
XFILLER_17_220 VGND VGND VPWR VPWR sky130_fd_sc_hd__decap_4
XFILLER_5_113 VGND VPWR VPWR VGND sky130_ef_sc_hd__decap_12
XFILLER_23_223 VGND VGND VPWR VPWR sky130_fd_sc_hd__fill_1
Xsome_customcells.genblk1\[34\].name_of_cell some_customcells.genblk1\[34\].name_of_cell/in
+ some_customcells.genblk1\[35\].name_of_cell/in VPWR VGND VPWR VGND sky130_customcell
XFILLER_4_83 VGND VGND VPWR VPWR sky130_fd_sc_hd__fill_1
XFILLER_20_248 VGND VGND VPWR VPWR sky130_fd_sc_hd__decap_4
XFILLER_9_293 VGND VGND VPWR VPWR sky130_fd_sc_hd__decap_6
XFILLER_1_193 VGND VPWR VPWR VGND sky130_ef_sc_hd__decap_12
XFILLER_27_3 VGND VPWR VPWR VGND sky130_ef_sc_hd__decap_12
Xsome_customcells.genblk1\[111\].name_of_cell some_customcells.genblk1\[111\].name_of_cell/in
+ some_customcells.genblk1\[112\].name_of_cell/in VPWR VGND VPWR VGND sky130_customcell
XFILLER_20_49 VGND VPWR VPWR VGND sky130_ef_sc_hd__decap_12
XFILLER_20_27 VGND VGND VPWR VPWR sky130_fd_sc_hd__fill_1
XFILLER_1_51 VGND VGND VPWR VPWR sky130_fd_sc_hd__decap_4
XFILLER_19_167 VGND VGND VPWR VPWR sky130_fd_sc_hd__fill_1
XFILLER_3_255 VGND VGND VPWR VPWR sky130_fd_sc_hd__fill_1
XFILLER_25_137 VGND VPWR VPWR VGND sky130_ef_sc_hd__decap_12
Xsome_customcells.genblk1\[27\].name_of_cell some_customcells.genblk1\[27\].name_of_cell/in
+ some_customcells.genblk1\[28\].name_of_cell/in VPWR VGND VPWR VGND sky130_customcell
Xsome_customcells.genblk1\[80\].name_of_cell some_customcells.genblk1\[80\].name_of_cell/in
+ some_customcells.genblk1\[81\].name_of_cell/in VPWR VGND VPWR VGND sky130_customcell
XFILLER_0_225 VGND VPWR VPWR VGND sky130_ef_sc_hd__decap_12
XFILLER_21_81 VGND VPWR VPWR VGND sky130_ef_sc_hd__decap_12
XTAP_129 VGND VPWR sky130_fd_sc_hd__tapvpwrvgnd_1
XTAP_118 VGND VPWR sky130_fd_sc_hd__tapvpwrvgnd_1
XPHY_1 VGND VGND VPWR VPWR sky130_fd_sc_hd__decap_3
XTAP_107 VGND VPWR sky130_fd_sc_hd__tapvpwrvgnd_1
XFILLER_26_15 VGND VPWR VPWR VGND sky130_ef_sc_hd__decap_12
XFILLER_12_195 VGND VGND VPWR VPWR sky130_fd_sc_hd__fill_1
Xsome_customcells.genblk1\[104\].name_of_cell some_customcells.genblk1\[104\].name_of_cell/in
+ some_customcells.genblk1\[105\].name_of_cell/in VPWR VGND VPWR VGND sky130_customcell
XFILLER_8_133 VGND VGND VPWR VPWR sky130_fd_sc_hd__decap_6
XFILLER_8_177 VGND VPWR VPWR VGND sky130_ef_sc_hd__decap_12
XFILLER_26_265 VGND VGND VPWR VPWR sky130_fd_sc_hd__decap_8
XFILLER_26_221 VGND VPWR VPWR VGND sky130_ef_sc_hd__decap_12
XFILLER_5_125 VGND VPWR VPWR VGND sky130_ef_sc_hd__decap_12
XFILLER_5_169 VGND VPWR VPWR VGND sky130_ef_sc_hd__decap_12
Xsome_customcells.genblk1\[73\].name_of_cell some_customcells.genblk1\[73\].name_of_cell/in
+ some_customcells.genblk1\[74\].name_of_cell/in VPWR VGND VPWR VGND sky130_customcell
XFILLER_2_139 VGND VGND VPWR VPWR sky130_fd_sc_hd__fill_1
XFILLER_20_227 VGND VGND VPWR VPWR sky130_fd_sc_hd__fill_1
XFILLER_1_161 VGND VGND VPWR VPWR sky130_fd_sc_hd__decap_6
XFILLER_18_49 VGND VGND VPWR VPWR sky130_fd_sc_hd__decap_4
XFILLER_18_27 VGND VGND VPWR VPWR sky130_fd_sc_hd__fill_1
XFILLER_11_205 VGND VPWR VPWR VGND sky130_ef_sc_hd__decap_12
XFILLER_6_253 VGND VPWR VPWR VGND sky130_ef_sc_hd__decap_12
XFILLER_19_113 VGND VPWR VPWR VGND sky130_ef_sc_hd__decap_12
Xsome_customcells.genblk1\[66\].name_of_cell some_customcells.genblk1\[66\].name_of_cell/in
+ some_customcells.genblk1\[67\].name_of_cell/in VPWR VGND VPWR VGND sky130_customcell
XFILLER_3_223 VGND VGND VPWR VPWR sky130_fd_sc_hd__fill_1
Xsome_customcells.genblk1\[2\].name_of_cell some_customcells.genblk1\[2\].name_of_cell/in
+ some_customcells.genblk1\[3\].name_of_cell/in VPWR VGND VPWR VGND sky130_customcell
XFILLER_25_105 VGND VGND VPWR VPWR sky130_fd_sc_hd__decap_6
XFILLER_19_81 VGND VPWR VPWR VGND sky130_ef_sc_hd__decap_12
XFILLER_25_149 VGND VPWR VPWR VGND sky130_ef_sc_hd__decap_12
XFILLER_15_28 VGND VGND VPWR VPWR sky130_fd_sc_hd__decap_4
XFILLER_0_237 VGND VPWR VPWR VGND sky130_ef_sc_hd__decap_12
XFILLER_21_93 VGND VPWR VPWR VGND sky130_ef_sc_hd__decap_12
XTAP_119 VGND VPWR sky130_fd_sc_hd__tapvpwrvgnd_1
XPHY_2 VGND VGND VPWR VPWR sky130_fd_sc_hd__decap_3
XTAP_108 VGND VPWR sky130_fd_sc_hd__tapvpwrvgnd_1
XFILLER_26_27 VGND VGND VPWR VPWR sky130_fd_sc_hd__fill_1
XFILLER_13_119 VGND VGND VPWR VPWR sky130_fd_sc_hd__fill_1
XFILLER_13_108 VGND VGND VPWR VPWR sky130_fd_sc_hd__decap_4
XFILLER_12_141 VGND VPWR VPWR VGND sky130_ef_sc_hd__decap_12
XFILLER_8_189 VGND VGND VPWR VPWR sky130_fd_sc_hd__decap_6
XFILLER_12_29 VGND VGND VPWR VPWR sky130_fd_sc_hd__decap_6
XFILLER_26_233 VGND VPWR VPWR VGND sky130_ef_sc_hd__decap_12
Xsome_customcells.genblk1\[59\].name_of_cell some_customcells.genblk1\[59\].name_of_cell/in
+ some_customcells.genblk1\[60\].name_of_cell/in VPWR VGND VPWR VGND sky130_customcell
XFILLER_5_137 VGND VPWR VPWR VGND sky130_ef_sc_hd__decap_12
XFILLER_27_81 VGND VGND VPWR VPWR sky130_fd_sc_hd__decap_3
XFILLER_4_41 VGND VPWR VPWR VGND sky130_ef_sc_hd__decap_12
XFILLER_4_85 VGND VPWR VPWR VGND sky130_ef_sc_hd__decap_12
XFILLER_23_225 VGND VGND VPWR VPWR sky130_fd_sc_hd__decap_6
Xsome_customcells.genblk1\[30\].name_of_cell some_customcells.genblk1\[30\].name_of_cell/in
+ some_customcells.genblk1\[31\].name_of_cell/in VPWR VGND VPWR VGND sky130_customcell
XFILLER_11_217 VGND VGND VPWR VPWR sky130_fd_sc_hd__decap_6
XFILLER_6_221 VGND VGND VPWR VPWR sky130_fd_sc_hd__decap_6
XFILLER_6_265 VGND VGND VPWR VPWR sky130_fd_sc_hd__decap_8
XFILLER_10_73 VGND VGND VPWR VPWR sky130_fd_sc_hd__decap_8
XFILLER_19_169 VGND VPWR VPWR VGND sky130_ef_sc_hd__decap_12
XFILLER_19_125 VGND VPWR VPWR VGND sky130_ef_sc_hd__decap_12
XFILLER_19_93 VGND VPWR VPWR VGND sky130_ef_sc_hd__decap_12
XFILLER_0_249 VGND VGND VPWR VPWR sky130_fd_sc_hd__decap_3
XTAP_109 VGND VPWR sky130_fd_sc_hd__tapvpwrvgnd_1
Xsome_customcells.genblk1\[23\].name_of_cell some_customcells.genblk1\[23\].name_of_cell/in
+ some_customcells.genblk1\[24\].name_of_cell/in VPWR VGND VPWR VGND sky130_customcell
XFILLER_22_109 VGND VPWR VPWR VGND sky130_ef_sc_hd__decap_12
XPHY_3 VGND VGND VPWR VPWR sky130_fd_sc_hd__decap_3
XFILLER_12_153 VGND VGND VPWR VPWR sky130_fd_sc_hd__decap_4
XFILLER_26_245 VGND VGND VPWR VPWR sky130_fd_sc_hd__decap_6
XFILLER_5_105 VGND VGND VPWR VPWR sky130_fd_sc_hd__decap_6
XFILLER_5_149 VGND VPWR VPWR VGND sky130_ef_sc_hd__decap_12
Xsome_customcells.genblk1\[98\].name_of_cell some_customcells.genblk1\[98\].name_of_cell/in
+ some_customcells.genblk1\[99\].name_of_cell/in VPWR VGND VPWR VGND sky130_customcell
Xsome_customcells.genblk1\[100\].name_of_cell some_customcells.genblk1\[99\].name_of_cell/out
+ some_customcells.genblk1\[101\].name_of_cell/in VPWR VGND VPWR VGND sky130_customcell
XFILLER_17_278 VGND VGND VPWR VPWR sky130_fd_sc_hd__fill_2
XFILLER_17_245 VGND VGND VPWR VPWR sky130_fd_sc_hd__decap_4
XFILLER_4_53 VGND VPWR VPWR VGND sky130_ef_sc_hd__decap_12
XFILLER_4_97 VGND VPWR VPWR VGND sky130_ef_sc_hd__decap_12
XFILLER_13_84 VGND VGND VPWR VPWR sky130_fd_sc_hd__decap_4
XFILLER_13_281 VGND VPWR VPWR VGND sky130_ef_sc_hd__decap_12
Xsome_customcells.genblk1\[16\].name_of_cell some_customcells.genblk1\[16\].name_of_cell/in
+ some_customcells.genblk1\[17\].name_of_cell/in VPWR VGND VPWR VGND sky130_customcell
XFILLER_9_252 VGND VGND VPWR VPWR sky130_fd_sc_hd__decap_4
XFILLER_24_83 VGND VGND VPWR VPWR sky130_fd_sc_hd__fill_1
XFILLER_27_181 VGND VPWR VPWR VGND sky130_ef_sc_hd__decap_12
XFILLER_19_137 VGND VPWR VPWR VGND sky130_ef_sc_hd__decap_12
XFILLER_10_85 VGND VPWR VPWR VGND sky130_ef_sc_hd__decap_12
XFILLER_3_225 VGND VPWR VPWR VGND sky130_ef_sc_hd__decap_12
XFILLER_25_3 VGND VPWR VPWR VGND sky130_ef_sc_hd__decap_12
XFILLER_24_195 VGND VGND VPWR VPWR sky130_fd_sc_hd__fill_1
XFILLER_15_140 VGND VGND VPWR VPWR sky130_fd_sc_hd__decap_4
Xsome_customcells.genblk1\[62\].name_of_cell some_customcells.genblk1\[62\].name_of_cell/in
+ some_customcells.genblk1\[63\].name_of_cell/in VPWR VGND VPWR VGND sky130_customcell
XPHY_4 VGND VGND VPWR VPWR sky130_fd_sc_hd__decap_3
XFILLER_26_29 VGND VPWR VPWR VGND sky130_ef_sc_hd__decap_12
XFILLER_23_205 VGND VPWR VPWR VGND sky130_ef_sc_hd__decap_12
XFILLER_2_109 VGND VPWR VPWR VGND sky130_ef_sc_hd__decap_12
XFILLER_4_65 VGND VPWR VPWR VGND sky130_ef_sc_hd__decap_12
XFILLER_14_249 VGND VGND VPWR VPWR sky130_fd_sc_hd__decap_3
XFILLER_13_63 VGND VGND VPWR VPWR sky130_fd_sc_hd__fill_1
XFILLER_13_52 VGND VGND VPWR VPWR sky130_fd_sc_hd__decap_4
XFILLER_13_293 VGND VGND VPWR VPWR sky130_fd_sc_hd__decap_6
Xsome_customcells.genblk1\[55\].name_of_cell some_customcells.genblk1\[55\].name_of_cell/in
+ some_customcells.genblk1\[56\].name_of_cell/in VPWR VGND VPWR VGND sky130_customcell
XFILLER_9_220 VGND VGND VPWR VPWR sky130_fd_sc_hd__decap_4
XFILLER_9_231 VGND VGND VPWR VPWR sky130_fd_sc_hd__fill_1
XFILLER_10_274 VGND VPWR VPWR VGND sky130_ef_sc_hd__decap_12
XFILLER_1_55 VGND VGND VPWR VPWR sky130_fd_sc_hd__fill_1
XFILLER_27_193 VGND VGND VPWR VPWR sky130_fd_sc_hd__decap_3
XFILLER_19_149 VGND VPWR VPWR VGND sky130_ef_sc_hd__decap_12
XFILLER_19_105 VGND VGND VPWR VPWR sky130_fd_sc_hd__decap_6
XFILLER_10_97 VGND VPWR VPWR VGND sky130_ef_sc_hd__decap_12
XFILLER_3_237 VGND VPWR VPWR VGND sky130_ef_sc_hd__decap_12
XFILLER_24_141 VGND VPWR VPWR VGND sky130_ef_sc_hd__decap_12
Xsome_customcells.genblk1\[48\].name_of_cell some_customcells.genblk1\[48\].name_of_cell/in
+ some_customcells.genblk1\[49\].name_of_cell/in VPWR VGND VPWR VGND sky130_customcell
XPHY_5 VGND VGND VPWR VPWR sky130_fd_sc_hd__decap_3
XFILLER_21_111 VGND VGND VPWR VPWR sky130_fd_sc_hd__fill_1
XFILLER_16_85 VGND VGND VPWR VPWR sky130_fd_sc_hd__decap_6
XFILLER_12_177 VGND VPWR VPWR VGND sky130_ef_sc_hd__decap_12
XFILLER_7_181 VGND VPWR VPWR VGND sky130_ef_sc_hd__decap_12
XFILLER_23_217 VGND VGND VPWR VPWR sky130_fd_sc_hd__decap_6
XFILLER_4_77 VGND VGND VPWR VPWR sky130_fd_sc_hd__decap_6
XFILLER_4_195 VGND VGND VPWR VPWR sky130_fd_sc_hd__fill_1
XFILLER_14_217 VGND VGND VPWR VPWR sky130_fd_sc_hd__decap_4
XFILLER_20_209 VGND VPWR VPWR VGND sky130_ef_sc_hd__decap_12
XFILLER_9_276 VGND VGND VPWR VPWR sky130_fd_sc_hd__decap_4
Xsome_customcells.genblk1\[94\].name_of_cell some_customcells.genblk1\[94\].name_of_cell/in
+ some_customcells.genblk1\[95\].name_of_cell/in VPWR VGND VPWR VGND sky130_customcell
XFILLER_24_85 VGND VPWR VPWR VGND sky130_ef_sc_hd__decap_12
XFILLER_24_41 VGND VPWR VPWR VGND sky130_ef_sc_hd__decap_12
XFILLER_10_286 VGND VPWR VPWR VGND sky130_ef_sc_hd__decap_12
XFILLER_10_253 VGND VGND VPWR VPWR sky130_fd_sc_hd__fill_1
Xsome_customcells.genblk1\[118\].name_of_cell some_customcells.genblk1\[118\].name_of_cell/in
+ some_customcells.genblk1\[119\].name_of_cell/in VPWR VGND VPWR VGND sky130_customcell
XFILLER_3_205 VGND VPWR VPWR VGND sky130_ef_sc_hd__decap_12
XFILLER_3_249 VGND VGND VPWR VPWR sky130_fd_sc_hd__decap_6
Xsome_customcells.genblk1\[12\].name_of_cell some_customcells.genblk1\[12\].name_of_cell/in
+ some_customcells.genblk1\[13\].name_of_cell/in VPWR VGND VPWR VGND sky130_customcell
XFILLER_24_197 VGND VPWR VPWR VGND sky130_ef_sc_hd__decap_12
XFILLER_24_153 VGND VPWR VPWR VGND sky130_ef_sc_hd__decap_12
Xsome_customcells.genblk1\[87\].name_of_cell some_customcells.genblk1\[87\].name_of_cell/in
+ some_customcells.genblk1\[88\].name_of_cell/in VPWR VGND VPWR VGND sky130_customcell
XFILLER_15_164 VGND VGND VPWR VPWR sky130_fd_sc_hd__decap_4
XPHY_6 VGND VGND VPWR VPWR sky130_fd_sc_hd__decap_3
XFILLER_7_55 VGND VGND VPWR VPWR sky130_fd_sc_hd__fill_1
XFILLER_21_167 VGND VGND VPWR VPWR sky130_fd_sc_hd__fill_1
XFILLER_12_189 VGND VGND VPWR VPWR sky130_fd_sc_hd__decap_6
XFILLER_12_112 VGND VGND VPWR VPWR sky130_fd_sc_hd__decap_4
XFILLER_7_193 VGND VPWR VPWR VGND sky130_ef_sc_hd__decap_12
XFILLER_27_41 VGND VPWR VPWR VGND sky130_ef_sc_hd__decap_12
XFILLER_27_85 VGND VPWR VPWR VGND sky130_ef_sc_hd__decap_12
XFILLER_25_281 VGND VPWR VPWR VGND sky130_ef_sc_hd__decap_12
XFILLER_4_23 VGND VGND VPWR VPWR sky130_fd_sc_hd__decap_4
XFILLER_4_141 VGND VPWR VPWR VGND sky130_ef_sc_hd__decap_12
XFILLER_22_295 VGND VGND VPWR VPWR sky130_fd_sc_hd__decap_4
XFILLER_22_273 VGND VGND VPWR VPWR sky130_fd_sc_hd__fill_2
XFILLER_1_111 VGND VGND VPWR VPWR sky130_fd_sc_hd__fill_1
XFILLER_24_97 VGND VPWR VPWR VGND sky130_ef_sc_hd__decap_12
XFILLER_24_53 VGND VPWR VPWR VGND sky130_ef_sc_hd__decap_12
XFILLER_10_298 VGND VGND VPWR VPWR sky130_fd_sc_hd__fill_1
Xsome_customcells.genblk1\[51\].name_of_cell some_customcells.genblk1\[51\].name_of_cell/in
+ some_customcells.genblk1\[52\].name_of_cell/in VPWR VGND VPWR VGND sky130_customcell
XFILLER_1_57 VGND VPWR VPWR VGND sky130_ef_sc_hd__decap_12
XFILLER_3_217 VGND VGND VPWR VPWR sky130_fd_sc_hd__decap_6
XTAP_90 VGND VPWR sky130_fd_sc_hd__tapvpwrvgnd_1
XFILLER_24_121 VGND VPWR VPWR VGND sky130_ef_sc_hd__decap_12
Xsome_customcells.genblk1\[9\].name_of_cell some_customcells.genblk1\[9\].name_of_cell/in
+ some_customcells.genblk1\[9\].name_of_cell/out VPWR VGND VPWR VGND sky130_customcell
XFILLER_18_195 VGND VGND VPWR VPWR sky130_fd_sc_hd__fill_1
XFILLER_0_209 VGND VPWR VPWR VGND sky130_ef_sc_hd__decap_12
XFILLER_24_165 VGND VPWR VPWR VGND sky130_ef_sc_hd__decap_12
XPHY_7 VGND VGND VPWR VPWR sky130_fd_sc_hd__decap_3
XFILLER_21_113 VGND VPWR VPWR VGND sky130_ef_sc_hd__decap_12
XFILLER_7_23 VGND VGND VPWR VPWR sky130_fd_sc_hd__decap_4
XFILLER_8_139 VGND VGND VPWR VPWR sky130_fd_sc_hd__fill_1
Xsome_customcells.genblk1\[44\].name_of_cell some_customcells.genblk1\[44\].name_of_cell/in
+ some_customcells.genblk1\[45\].name_of_cell/in VPWR VGND VPWR VGND sky130_customcell
XFILLER_7_161 VGND VGND VPWR VPWR sky130_fd_sc_hd__decap_6
XFILLER_27_97 VGND VPWR VPWR VGND sky130_ef_sc_hd__decap_12
XFILLER_27_53 VGND VGND VPWR VPWR sky130_fd_sc_hd__decap_3
XFILLER_25_293 VGND VGND VPWR VPWR sky130_fd_sc_hd__decap_6
XFILLER_17_249 VGND VGND VPWR VPWR sky130_fd_sc_hd__fill_1
XFILLER_4_153 VGND VPWR VPWR VGND sky130_ef_sc_hd__decap_12
XFILLER_4_197 VGND VPWR VPWR VGND sky130_ef_sc_hd__decap_12
XFILLER_1_167 VGND VGND VPWR VPWR sky130_fd_sc_hd__fill_1
Xsome_customcells.genblk1\[121\].name_of_cell some_customcells.genblk1\[121\].name_of_cell/in
+ some_customcells.genblk1\[122\].name_of_cell/in VPWR VGND VPWR VGND sky130_customcell
XFILLER_24_65 VGND VPWR VPWR VGND sky130_ef_sc_hd__decap_12
Xsome_customcells.genblk1\[37\].name_of_cell some_customcells.genblk1\[37\].name_of_cell/in
+ some_customcells.genblk1\[38\].name_of_cell/in VPWR VGND VPWR VGND sky130_customcell
Xsome_customcells.genblk1\[90\].name_of_cell some_customcells.genblk1\[90\].name_of_cell/in
+ some_customcells.genblk1\[91\].name_of_cell/in VPWR VGND VPWR VGND sky130_customcell
XFILLER_1_69 VGND VPWR VPWR VGND sky130_ef_sc_hd__decap_12
XFILLER_6_248 VGND VGND VPWR VPWR sky130_fd_sc_hd__decap_4
XFILLER_10_23 VGND VGND VPWR VPWR sky130_fd_sc_hd__decap_4
XTAP_80 VGND VPWR sky130_fd_sc_hd__tapvpwrvgnd_1
XFILLER_5_281 VGND VPWR VPWR VGND sky130_ef_sc_hd__decap_12
XTAP_91 VGND VPWR sky130_fd_sc_hd__tapvpwrvgnd_1
XFILLER_27_141 VGND VPWR VPWR VGND sky130_ef_sc_hd__decap_12
XFILLER_2_251 VGND VGND VPWR VPWR sky130_fd_sc_hd__fill_1
XFILLER_2_273 VGND VGND VPWR VPWR sky130_fd_sc_hd__fill_2
XFILLER_2_295 VGND VGND VPWR VPWR sky130_fd_sc_hd__decap_4
XFILLER_18_141 VGND VPWR VPWR VGND sky130_ef_sc_hd__decap_12
XFILLER_24_177 VGND VPWR VPWR VGND sky130_ef_sc_hd__decap_12
XFILLER_24_133 VGND VGND VPWR VPWR sky130_fd_sc_hd__decap_6